* SPICE3 file created from user_analog_project_wrapper.ext - technology: sky130A

.subckt sky130_fd_pr__pfet_01v8_LXX5YL a_487_n1154# a_n287_n1154# a_n487_21# a_n487_657#
+ a_287_21# a_229_n518# a_29_n1251# a_n487_n1251# a_n545_n1154# a_n545_n518# a_29_n615#
+ a_29_21# a_29_657# a_n29_n1154# a_229_n1154# a_n29_n518# a_229_118# a_229_754# a_487_n518#
+ a_287_657# a_n229_n615# a_287_n615# a_n545_118# a_n545_754# a_n229_n1251# a_n229_21#
+ a_487_118# a_487_754# a_n229_657# a_n29_118# w_n683_n1373# a_n29_754# a_n287_n518#
+ a_n287_118# a_n287_754# a_287_n1251# a_n487_n615#
X0 a_n287_n518# a_n487_n615# a_n545_n518# w_n683_n1373# sky130_fd_pr__pfet_01v8 ad=5.8e+11p pd=4.58e+06u as=5.8e+11p ps=4.58e+06u w=2e+06u l=1e+06u
X1 a_n29_118# a_n229_21# a_n287_118# w_n683_n1373# sky130_fd_pr__pfet_01v8 ad=5.8e+11p pd=4.58e+06u as=5.8e+11p ps=4.58e+06u w=2e+06u l=1e+06u
X2 a_487_n1154# a_287_n1251# a_229_n1154# w_n683_n1373# sky130_fd_pr__pfet_01v8 ad=5.8e+11p pd=4.58e+06u as=5.8e+11p ps=4.58e+06u w=2e+06u l=1e+06u
X3 a_n287_754# a_n487_657# a_n545_754# w_n683_n1373# sky130_fd_pr__pfet_01v8 ad=5.8e+11p pd=4.58e+06u as=5.8e+11p ps=4.58e+06u w=2e+06u l=1e+06u
X4 a_229_118# a_29_21# a_n29_118# w_n683_n1373# sky130_fd_pr__pfet_01v8 ad=5.8e+11p pd=4.58e+06u as=0p ps=0u w=2e+06u l=1e+06u
X5 a_n287_n1154# a_n487_n1251# a_n545_n1154# w_n683_n1373# sky130_fd_pr__pfet_01v8 ad=5.8e+11p pd=4.58e+06u as=5.8e+11p ps=4.58e+06u w=2e+06u l=1e+06u
X6 a_n29_n1154# a_n229_n1251# a_n287_n1154# w_n683_n1373# sky130_fd_pr__pfet_01v8 ad=5.8e+11p pd=4.58e+06u as=0p ps=0u w=2e+06u l=1e+06u
X7 a_487_118# a_287_21# a_229_118# w_n683_n1373# sky130_fd_pr__pfet_01v8 ad=5.8e+11p pd=4.58e+06u as=0p ps=0u w=2e+06u l=1e+06u
X8 a_487_n518# a_287_n615# a_229_n518# w_n683_n1373# sky130_fd_pr__pfet_01v8 ad=5.8e+11p pd=4.58e+06u as=5.8e+11p ps=4.58e+06u w=2e+06u l=1e+06u
X9 a_229_n1154# a_29_n1251# a_n29_n1154# w_n683_n1373# sky130_fd_pr__pfet_01v8 ad=0p pd=0u as=0p ps=0u w=2e+06u l=1e+06u
X10 a_n287_118# a_n487_21# a_n545_118# w_n683_n1373# sky130_fd_pr__pfet_01v8 ad=0p pd=0u as=5.8e+11p ps=4.58e+06u w=2e+06u l=1e+06u
X11 a_n29_754# a_n229_657# a_n287_754# w_n683_n1373# sky130_fd_pr__pfet_01v8 ad=5.8e+11p pd=4.58e+06u as=0p ps=0u w=2e+06u l=1e+06u
X12 a_229_754# a_29_657# a_n29_754# w_n683_n1373# sky130_fd_pr__pfet_01v8 ad=5.8e+11p pd=4.58e+06u as=0p ps=0u w=2e+06u l=1e+06u
X13 a_n29_n518# a_n229_n615# a_n287_n518# w_n683_n1373# sky130_fd_pr__pfet_01v8 ad=5.8e+11p pd=4.58e+06u as=0p ps=0u w=2e+06u l=1e+06u
X14 a_229_n518# a_29_n615# a_n29_n518# w_n683_n1373# sky130_fd_pr__pfet_01v8 ad=0p pd=0u as=0p ps=0u w=2e+06u l=1e+06u
X15 a_487_754# a_287_657# a_229_754# w_n683_n1373# sky130_fd_pr__pfet_01v8 ad=5.8e+11p pd=4.58e+06u as=0p ps=0u w=2e+06u l=1e+06u
.ends

.subckt sky130_fd_pr__pfet_01v8_X9CJL2 a_n225_n200# a_16_n297# a_69_n200# a_167_n200#
+ a_n82_231# a_114_231# a_n180_n297# w_n363_n419# a_n29_n200# a_n127_n200#
X0 a_69_n200# a_16_n297# a_n29_n200# w_n363_n419# sky130_fd_pr__pfet_01v8 ad=5.8e+11p pd=4.58e+06u as=5.8e+11p ps=4.58e+06u w=2e+06u l=200000u
X1 a_n29_n200# a_n82_231# a_n127_n200# w_n363_n419# sky130_fd_pr__pfet_01v8 ad=0p pd=0u as=5.8e+11p ps=4.58e+06u w=2e+06u l=200000u
X2 a_n127_n200# a_n180_n297# a_n225_n200# w_n363_n419# sky130_fd_pr__pfet_01v8 ad=0p pd=0u as=5.8e+11p ps=4.58e+06u w=2e+06u l=200000u
X3 a_167_n200# a_114_231# a_69_n200# w_n363_n419# sky130_fd_pr__pfet_01v8 ad=5.8e+11p pd=4.58e+06u as=0p ps=0u w=2e+06u l=200000u
.ends

.subckt mirror_p m1_n92_1078# w_230_1520# m1_n190_1320# m1_n140_970#
Xsky130_fd_pr__pfet_01v8_LXX5YL_0 w_230_1520# m1_n92_1078# m1_n140_970# m1_n140_970#
+ m1_n140_970# m1_n92_1078# m1_n140_970# m1_n140_970# w_230_1520# w_230_1520# m1_n140_970#
+ m1_n140_970# m1_n140_970# w_230_1520# m1_n92_1078# w_230_1520# m1_n92_1078# m1_n92_1078#
+ w_230_1520# m1_n140_970# m1_n140_970# m1_n140_970# w_230_1520# w_230_1520# m1_n140_970#
+ m1_n140_970# w_230_1520# w_230_1520# m1_n140_970# w_230_1520# w_230_1520# w_230_1520#
+ m1_n92_1078# m1_n92_1078# m1_n92_1078# m1_n140_970# m1_n140_970# sky130_fd_pr__pfet_01v8_LXX5YL
Xsky130_fd_pr__pfet_01v8_X9CJL2_0 m1_n190_1320# m1_n140_970# m1_n92_1078# m1_n190_1320#
+ m1_n140_970# m1_n140_970# m1_n140_970# w_230_1520# m1_n190_1320# m1_n92_1078# sky130_fd_pr__pfet_01v8_X9CJL2
.ends

.subckt eigth_mirror mirror_p_0/m1_n92_1078# I_out_7 I_out_6 I_out_5 I_out_4 I_out_3
+ I_out_2 I_out_1 I_out_0 m3_100_0# I_In
Xmirror_p_0 mirror_p_0/m1_n92_1078# m3_100_0# I_In I_In mirror_p
Xmirror_p_1 mirror_p_1/m1_n92_1078# m3_100_0# I_out_0 I_In mirror_p
Xmirror_p_2 mirror_p_2/m1_n92_1078# m3_100_0# I_out_1 I_In mirror_p
Xmirror_p_3 mirror_p_3/m1_n92_1078# m3_100_0# I_out_2 I_In mirror_p
Xmirror_p_4 mirror_p_4/m1_n92_1078# m3_100_0# I_out_3 I_In mirror_p
Xmirror_p_6 mirror_p_6/m1_n92_1078# m3_100_0# I_out_7 I_In mirror_p
Xmirror_p_7 mirror_p_7/m1_n92_1078# m3_100_0# I_out_6 I_In mirror_p
Xmirror_p_8 mirror_p_8/m1_n92_1078# m3_100_0# I_out_5 I_In mirror_p
Xmirror_p_9 mirror_p_9/m1_n92_1078# m3_100_0# I_out_4 I_In mirror_p
.ends

.subckt sky130_fd_pr__nfet_01v8_CDW43Z a_100_n50# a_n100_n138# a_n260_n224# a_n158_n50#
X0 a_100_n50# a_n100_n138# a_n158_n50# a_n260_n224# sky130_fd_pr__nfet_01v8 ad=1.45e+11p pd=1.58e+06u as=1.45e+11p ps=1.58e+06u w=500000u l=1e+06u
.ends

.subckt sky130_fd_pr__nfet_01v8_F8VELN a_n513_n200# a_n129_n200# a_399_n288# a_63_n200#
+ a_n225_n200# a_495_222# a_111_222# a_n321_n200# a_207_n288# a_n33_n200# a_n369_n288#
+ a_n707_n374# a_303_222# a_n605_n200# a_447_n200# a_15_n288# a_n81_222# a_n177_n288#
+ a_n561_n288# a_543_n200# a_159_n200# a_n273_222# a_255_n200# w_n743_n410# a_351_n200#
+ a_n417_n200# a_n465_222#
X0 a_n33_n200# a_n81_222# a_n129_n200# a_n707_n374# sky130_fd_pr__nfet_01v8 ad=6.6e+11p pd=4.66e+06u as=6.6e+11p ps=4.66e+06u w=2e+06u l=150000u
X1 a_351_n200# a_303_222# a_255_n200# a_n707_n374# sky130_fd_pr__nfet_01v8 ad=6.6e+11p pd=4.66e+06u as=6.6e+11p ps=4.66e+06u w=2e+06u l=150000u
X2 a_255_n200# a_207_n288# a_159_n200# a_n707_n374# sky130_fd_pr__nfet_01v8 ad=0p pd=0u as=6.6e+11p ps=4.66e+06u w=2e+06u l=150000u
X3 a_n321_n200# a_n369_n288# a_n417_n200# a_n707_n374# sky130_fd_pr__nfet_01v8 ad=6.6e+11p pd=4.66e+06u as=6.6e+11p ps=4.66e+06u w=2e+06u l=150000u
X4 a_543_n200# a_495_222# a_447_n200# a_n707_n374# sky130_fd_pr__nfet_01v8 ad=6.2e+11p pd=4.62e+06u as=6.6e+11p ps=4.66e+06u w=2e+06u l=150000u
X5 a_159_n200# a_111_222# a_63_n200# a_n707_n374# sky130_fd_pr__nfet_01v8 ad=0p pd=0u as=6.6e+11p ps=4.66e+06u w=2e+06u l=150000u
X6 a_n225_n200# a_n273_222# a_n321_n200# a_n707_n374# sky130_fd_pr__nfet_01v8 ad=6.6e+11p pd=4.66e+06u as=0p ps=0u w=2e+06u l=150000u
X7 a_447_n200# a_399_n288# a_351_n200# a_n707_n374# sky130_fd_pr__nfet_01v8 ad=0p pd=0u as=0p ps=0u w=2e+06u l=150000u
X8 a_n513_n200# a_n561_n288# a_n605_n200# a_n707_n374# sky130_fd_pr__nfet_01v8 ad=6.6e+11p pd=4.66e+06u as=6.2e+11p ps=4.62e+06u w=2e+06u l=150000u
X9 a_63_n200# a_15_n288# a_n33_n200# a_n707_n374# sky130_fd_pr__nfet_01v8 ad=0p pd=0u as=0p ps=0u w=2e+06u l=150000u
X10 a_n129_n200# a_n177_n288# a_n225_n200# a_n707_n374# sky130_fd_pr__nfet_01v8 ad=0p pd=0u as=0p ps=0u w=2e+06u l=150000u
X11 a_n417_n200# a_n465_222# a_n513_n200# a_n707_n374# sky130_fd_pr__nfet_01v8 ad=0p pd=0u as=0p ps=0u w=2e+06u l=150000u
.ends

.subckt sky130_fd_pr__nfet_01v8_854667 a_n287_n200# a_745_n200# a_n487_n288# a_545_n288#
+ w_n941_n410# a_229_n200# a_n545_n200# a_29_n288# a_n745_n288# a_487_n200# a_n29_n200#
+ a_n229_n288# a_n905_n374# a_287_n288# a_n803_n200#
X0 a_745_n200# a_545_n288# a_487_n200# a_n905_n374# sky130_fd_pr__nfet_01v8 ad=5.8e+11p pd=4.58e+06u as=5.8e+11p ps=4.58e+06u w=2e+06u l=1e+06u
X1 a_487_n200# a_287_n288# a_229_n200# a_n905_n374# sky130_fd_pr__nfet_01v8 ad=0p pd=0u as=5.8e+11p ps=4.58e+06u w=2e+06u l=1e+06u
X2 a_n29_n200# a_n229_n288# a_n287_n200# a_n905_n374# sky130_fd_pr__nfet_01v8 ad=5.8e+11p pd=4.58e+06u as=5.8e+11p ps=4.58e+06u w=2e+06u l=1e+06u
X3 a_229_n200# a_29_n288# a_n29_n200# a_n905_n374# sky130_fd_pr__nfet_01v8 ad=0p pd=0u as=0p ps=0u w=2e+06u l=1e+06u
X4 a_n545_n200# a_n745_n288# a_n803_n200# a_n905_n374# sky130_fd_pr__nfet_01v8 ad=5.8e+11p pd=4.58e+06u as=5.8e+11p ps=4.58e+06u w=2e+06u l=1e+06u
X5 a_n287_n200# a_n487_n288# a_n545_n200# a_n905_n374# sky130_fd_pr__nfet_01v8 ad=0p pd=0u as=0p ps=0u w=2e+06u l=1e+06u
.ends

.subckt tia_cur_mirror sky130_fd_pr__nfet_01v8_854667_0/w_n941_n410# m1_71_n690# sky130_fd_pr__nfet_01v8_F8VELN_0/w_n743_n410#
+ SUB a_122_42# m1_71_130# m1_167_370#
Xsky130_fd_pr__nfet_01v8_F8VELN_0 m1_167_370# m1_167_370# a_122_42# m1_167_370# m1_71_130#
+ a_122_42# a_122_42# m1_167_370# a_122_42# m1_71_130# a_122_42# SUB a_122_42# m1_71_130#
+ m1_167_370# a_122_42# a_122_42# a_122_42# a_122_42# m1_71_130# m1_71_130# a_122_42#
+ m1_167_370# sky130_fd_pr__nfet_01v8_F8VELN_0/w_n743_n410# m1_71_130# m1_71_130#
+ a_122_42# sky130_fd_pr__nfet_01v8_F8VELN
Xsky130_fd_pr__nfet_01v8_854667_0 m1_71_n690# m1_71_n690# a_122_42# a_122_42# sky130_fd_pr__nfet_01v8_854667_0/w_n941_n410#
+ m1_71_n690# m1_71_130# a_122_42# a_122_42# m1_71_130# m1_71_130# a_122_42# SUB a_122_42#
+ m1_71_n690# sky130_fd_pr__nfet_01v8_854667
.ends

.subckt sky130_fd_pr__nfet_01v8_lvt_ZRA4RB a_n523_21# a_n817_n597# a_n1156_n509# a_n523_n87#
+ a_n1209_531# a_608_n509# a_216_109# a_n862_n509# a_n621_n597# a_n1209_n597# a_n568_109#
+ a_n78_n509# a_706_109# a_653_21# a_412_n509# a_653_n87# a_n817_531# a_n327_21# a_n131_n87#
+ a_n78_109# a_n1254_n509# a_n1058_109# a_n1013_n597# a_706_n509# a_n176_109# a_359_n597#
+ a_314_109# a_n176_n509# a_947_531# a_261_n87# a_n960_n509# a_n425_531# a_1143_n597#
+ a_457_21# a_n1111_n87# a_510_n509# a_n666_109# a_804_109# a_65_21# a_163_n597# a_n229_n597#
+ a_n1356_n683# a_n1156_109# a_555_531# a_804_n509# a_n274_n509# a_n915_21# a_n274_109#
+ a_412_109# a_1098_n509# a_n719_n87# a_n33_n597# a_1098_109# a_163_531# a_n764_109#
+ a_902_109# a_n568_n509# a_n33_531# a_n131_21# a_n1013_531# a_118_n509# a_902_n509#
+ a_n1254_109# a_849_n87# a_n719_21# a_n327_n87# a_555_n597# a_n372_n509# a_n1111_21#
+ a_1196_n509# a_1143_531# a_n372_109# a_510_109# a_261_21# a_20_109# a_n621_531#
+ a_1196_109# a_n666_n509# a_1000_109# a_n425_n597# a_849_21# a_n862_109# a_457_n87#
+ a_216_n509# a_1000_n509# a_751_531# a_n470_n509# a_n1058_n509# a_118_109# a_n470_109#
+ a_n229_531# a_n915_n87# a_947_n597# a_n764_n509# a_20_n509# a_608_109# a_1045_21#
+ a_n960_109# a_314_n509# a_65_n87# a_359_531# a_751_n597# a_1045_n87#
X0 a_n274_109# a_n327_21# a_n372_109# a_n1356_n683# sky130_fd_pr__nfet_01v8_lvt ad=5.8e+11p pd=4.58e+06u as=5.8e+11p ps=4.58e+06u w=2e+06u l=200000u
X1 a_n764_n509# a_n817_n597# a_n862_n509# a_n1356_n683# sky130_fd_pr__nfet_01v8_lvt ad=5.8e+11p pd=4.58e+06u as=5.8e+11p ps=4.58e+06u w=2e+06u l=200000u
X2 a_706_n509# a_653_n87# a_608_n509# a_n1356_n683# sky130_fd_pr__nfet_01v8_lvt ad=5.8e+11p pd=4.58e+06u as=5.8e+11p ps=4.58e+06u w=2e+06u l=200000u
X3 a_n568_109# a_n621_531# a_n666_109# a_n1356_n683# sky130_fd_pr__nfet_01v8_lvt ad=5.8e+11p pd=4.58e+06u as=5.8e+11p ps=4.58e+06u w=2e+06u l=200000u
X4 a_n862_109# a_n915_21# a_n960_109# a_n1356_n683# sky130_fd_pr__nfet_01v8_lvt ad=5.8e+11p pd=4.58e+06u as=5.8e+11p ps=4.58e+06u w=2e+06u l=200000u
X5 a_1196_n509# a_1143_n597# a_1098_n509# a_n1356_n683# sky130_fd_pr__nfet_01v8_lvt ad=5.8e+11p pd=4.58e+06u as=5.8e+11p ps=4.58e+06u w=2e+06u l=200000u
X6 a_1196_109# a_1143_531# a_1098_109# a_n1356_n683# sky130_fd_pr__nfet_01v8_lvt ad=5.8e+11p pd=4.58e+06u as=5.8e+11p ps=4.58e+06u w=2e+06u l=200000u
X7 a_n1156_n509# a_n1209_n597# a_n1254_n509# a_n1356_n683# sky130_fd_pr__nfet_01v8_lvt ad=5.8e+11p pd=4.58e+06u as=5.8e+11p ps=4.58e+06u w=2e+06u l=200000u
X8 a_n960_109# a_n1013_531# a_n1058_109# a_n1356_n683# sky130_fd_pr__nfet_01v8_lvt ad=0p pd=0u as=5.8e+11p ps=4.58e+06u w=2e+06u l=200000u
X9 a_412_109# a_359_531# a_314_109# a_n1356_n683# sky130_fd_pr__nfet_01v8_lvt ad=5.8e+11p pd=4.58e+06u as=5.8e+11p ps=4.58e+06u w=2e+06u l=200000u
X10 a_n470_n509# a_n523_n87# a_n568_n509# a_n1356_n683# sky130_fd_pr__nfet_01v8_lvt ad=5.8e+11p pd=4.58e+06u as=5.8e+11p ps=4.58e+06u w=2e+06u l=200000u
X11 a_n372_n509# a_n425_n597# a_n470_n509# a_n1356_n683# sky130_fd_pr__nfet_01v8_lvt ad=5.8e+11p pd=4.58e+06u as=0p ps=0u w=2e+06u l=200000u
X12 a_314_n509# a_261_n87# a_216_n509# a_n1356_n683# sky130_fd_pr__nfet_01v8_lvt ad=5.8e+11p pd=4.58e+06u as=5.8e+11p ps=4.58e+06u w=2e+06u l=200000u
X13 a_706_109# a_653_21# a_608_109# a_n1356_n683# sky130_fd_pr__nfet_01v8_lvt ad=5.8e+11p pd=4.58e+06u as=5.8e+11p ps=4.58e+06u w=2e+06u l=200000u
X14 a_n862_n509# a_n915_n87# a_n960_n509# a_n1356_n683# sky130_fd_pr__nfet_01v8_lvt ad=0p pd=0u as=5.8e+11p ps=4.58e+06u w=2e+06u l=200000u
X15 a_n78_109# a_n131_21# a_n176_109# a_n1356_n683# sky130_fd_pr__nfet_01v8_lvt ad=5.8e+11p pd=4.58e+06u as=5.8e+11p ps=4.58e+06u w=2e+06u l=200000u
X16 a_1000_109# a_947_531# a_902_109# a_n1356_n683# sky130_fd_pr__nfet_01v8_lvt ad=5.8e+11p pd=4.58e+06u as=5.8e+11p ps=4.58e+06u w=2e+06u l=200000u
X17 a_804_n509# a_751_n597# a_706_n509# a_n1356_n683# sky130_fd_pr__nfet_01v8_lvt ad=5.8e+11p pd=4.58e+06u as=0p ps=0u w=2e+06u l=200000u
X18 a_n372_109# a_n425_531# a_n470_109# a_n1356_n683# sky130_fd_pr__nfet_01v8_lvt ad=0p pd=0u as=5.8e+11p ps=4.58e+06u w=2e+06u l=200000u
X19 a_118_n509# a_65_n87# a_20_n509# a_n1356_n683# sky130_fd_pr__nfet_01v8_lvt ad=5.8e+11p pd=4.58e+06u as=5.8e+11p ps=4.58e+06u w=2e+06u l=200000u
X20 a_n666_109# a_n719_21# a_n764_109# a_n1356_n683# sky130_fd_pr__nfet_01v8_lvt ad=0p pd=0u as=5.8e+11p ps=4.58e+06u w=2e+06u l=200000u
X21 a_n78_n509# a_n131_n87# a_n176_n509# a_n1356_n683# sky130_fd_pr__nfet_01v8_lvt ad=5.8e+11p pd=4.58e+06u as=5.8e+11p ps=4.58e+06u w=2e+06u l=200000u
X22 a_n1058_109# a_n1111_21# a_n1156_109# a_n1356_n683# sky130_fd_pr__nfet_01v8_lvt ad=0p pd=0u as=5.8e+11p ps=4.58e+06u w=2e+06u l=200000u
X23 a_n568_n509# a_n621_n597# a_n666_n509# a_n1356_n683# sky130_fd_pr__nfet_01v8_lvt ad=0p pd=0u as=5.8e+11p ps=4.58e+06u w=2e+06u l=200000u
X24 a_412_n509# a_359_n597# a_314_n509# a_n1356_n683# sky130_fd_pr__nfet_01v8_lvt ad=5.8e+11p pd=4.58e+06u as=0p ps=0u w=2e+06u l=200000u
X25 a_216_109# a_163_531# a_118_109# a_n1356_n683# sky130_fd_pr__nfet_01v8_lvt ad=5.8e+11p pd=4.58e+06u as=5.8e+11p ps=4.58e+06u w=2e+06u l=200000u
X26 a_118_109# a_65_21# a_20_109# a_n1356_n683# sky130_fd_pr__nfet_01v8_lvt ad=0p pd=0u as=5.8e+11p ps=4.58e+06u w=2e+06u l=200000u
X27 a_510_109# a_457_21# a_412_109# a_n1356_n683# sky130_fd_pr__nfet_01v8_lvt ad=5.8e+11p pd=4.58e+06u as=0p ps=0u w=2e+06u l=200000u
X28 a_n960_n509# a_n1013_n597# a_n1058_n509# a_n1356_n683# sky130_fd_pr__nfet_01v8_lvt ad=0p pd=0u as=5.8e+11p ps=4.58e+06u w=2e+06u l=200000u
X29 a_902_n509# a_849_n87# a_804_n509# a_n1356_n683# sky130_fd_pr__nfet_01v8_lvt ad=5.8e+11p pd=4.58e+06u as=0p ps=0u w=2e+06u l=200000u
X30 a_804_109# a_751_531# a_706_109# a_n1356_n683# sky130_fd_pr__nfet_01v8_lvt ad=5.8e+11p pd=4.58e+06u as=0p ps=0u w=2e+06u l=200000u
X31 a_n176_109# a_n229_531# a_n274_109# a_n1356_n683# sky130_fd_pr__nfet_01v8_lvt ad=0p pd=0u as=0p ps=0u w=2e+06u l=200000u
X32 a_n176_n509# a_n229_n597# a_n274_n509# a_n1356_n683# sky130_fd_pr__nfet_01v8_lvt ad=0p pd=0u as=5.8e+11p ps=4.58e+06u w=2e+06u l=200000u
X33 a_n470_109# a_n523_21# a_n568_109# a_n1356_n683# sky130_fd_pr__nfet_01v8_lvt ad=0p pd=0u as=0p ps=0u w=2e+06u l=200000u
X34 a_n764_109# a_n817_531# a_n862_109# a_n1356_n683# sky130_fd_pr__nfet_01v8_lvt ad=0p pd=0u as=0p ps=0u w=2e+06u l=200000u
X35 a_n666_n509# a_n719_n87# a_n764_n509# a_n1356_n683# sky130_fd_pr__nfet_01v8_lvt ad=0p pd=0u as=0p ps=0u w=2e+06u l=200000u
X36 a_510_n509# a_457_n87# a_412_n509# a_n1356_n683# sky130_fd_pr__nfet_01v8_lvt ad=5.8e+11p pd=4.58e+06u as=0p ps=0u w=2e+06u l=200000u
X37 a_1098_109# a_1045_21# a_1000_109# a_n1356_n683# sky130_fd_pr__nfet_01v8_lvt ad=0p pd=0u as=0p ps=0u w=2e+06u l=200000u
X38 a_608_n509# a_555_n597# a_510_n509# a_n1356_n683# sky130_fd_pr__nfet_01v8_lvt ad=0p pd=0u as=0p ps=0u w=2e+06u l=200000u
X39 a_20_109# a_n33_531# a_n78_109# a_n1356_n683# sky130_fd_pr__nfet_01v8_lvt ad=0p pd=0u as=0p ps=0u w=2e+06u l=200000u
X40 a_n1156_109# a_n1209_531# a_n1254_109# a_n1356_n683# sky130_fd_pr__nfet_01v8_lvt ad=0p pd=0u as=5.8e+11p ps=4.58e+06u w=2e+06u l=200000u
X41 a_1000_n509# a_947_n597# a_902_n509# a_n1356_n683# sky130_fd_pr__nfet_01v8_lvt ad=5.8e+11p pd=4.58e+06u as=0p ps=0u w=2e+06u l=200000u
X42 a_1098_n509# a_1045_n87# a_1000_n509# a_n1356_n683# sky130_fd_pr__nfet_01v8_lvt ad=0p pd=0u as=0p ps=0u w=2e+06u l=200000u
X43 a_314_109# a_261_21# a_216_109# a_n1356_n683# sky130_fd_pr__nfet_01v8_lvt ad=0p pd=0u as=0p ps=0u w=2e+06u l=200000u
X44 a_n1058_n509# a_n1111_n87# a_n1156_n509# a_n1356_n683# sky130_fd_pr__nfet_01v8_lvt ad=0p pd=0u as=0p ps=0u w=2e+06u l=200000u
X45 a_608_109# a_555_531# a_510_109# a_n1356_n683# sky130_fd_pr__nfet_01v8_lvt ad=0p pd=0u as=0p ps=0u w=2e+06u l=200000u
X46 a_n274_n509# a_n327_n87# a_n372_n509# a_n1356_n683# sky130_fd_pr__nfet_01v8_lvt ad=0p pd=0u as=0p ps=0u w=2e+06u l=200000u
X47 a_902_109# a_849_21# a_804_109# a_n1356_n683# sky130_fd_pr__nfet_01v8_lvt ad=0p pd=0u as=0p ps=0u w=2e+06u l=200000u
X48 a_20_n509# a_n33_n597# a_n78_n509# a_n1356_n683# sky130_fd_pr__nfet_01v8_lvt ad=0p pd=0u as=0p ps=0u w=2e+06u l=200000u
X49 a_216_n509# a_163_n597# a_118_n509# a_n1356_n683# sky130_fd_pr__nfet_01v8_lvt ad=0p pd=0u as=0p ps=0u w=2e+06u l=200000u
.ends

.subckt sky130_fd_pr__pfet_01v8_NZHYX4 a_n568_n518# a_n764_118# a_653_n615# a_n719_n615#
+ a_163_n87# a_n33_n87# a_118_n518# a_n372_n518# a_n523_n615# a_510_118# a_n372_118#
+ a_20_118# a_65_549# a_n666_n518# a_n621_n87# a_163_21# a_n523_549# a_216_n518# a_n470_n518#
+ w_n902_n737# a_118_118# a_n470_118# a_653_549# a_n131_549# a_20_n518# a_n764_n518#
+ a_n229_n87# a_n621_21# a_314_n518# a_608_118# a_65_n615# a_359_n87# a_n33_21# a_261_549#
+ a_608_n518# a_216_118# a_n425_21# a_412_n518# a_n78_n518# a_706_118# a_n568_118#
+ a_457_n615# a_n78_118# a_555_21# a_n719_549# a_706_n518# a_n229_21# a_314_118# a_n176_118#
+ a_n176_n518# a_261_n615# a_n327_n615# a_510_n518# a_n425_n87# a_n666_118# a_359_21#
+ a_n327_549# a_n131_n615# a_n274_n518# a_555_n87# a_457_549# a_412_118# a_n274_118#
X0 a_n666_n518# a_n719_n615# a_n764_n518# w_n902_n737# sky130_fd_pr__pfet_01v8 ad=5.8e+11p pd=4.58e+06u as=5.8e+11p ps=4.58e+06u w=2e+06u l=200000u
X1 a_510_n518# a_457_n615# a_412_n518# w_n902_n737# sky130_fd_pr__pfet_01v8 ad=5.8e+11p pd=4.58e+06u as=5.8e+11p ps=4.58e+06u w=2e+06u l=200000u
X2 a_20_118# a_n33_21# a_n78_118# w_n902_n737# sky130_fd_pr__pfet_01v8 ad=5.8e+11p pd=4.58e+06u as=5.8e+11p ps=4.58e+06u w=2e+06u l=200000u
X3 a_608_n518# a_555_n87# a_510_n518# w_n902_n737# sky130_fd_pr__pfet_01v8 ad=5.8e+11p pd=4.58e+06u as=0p ps=0u w=2e+06u l=200000u
X4 a_314_118# a_261_549# a_216_118# w_n902_n737# sky130_fd_pr__pfet_01v8 ad=5.8e+11p pd=4.58e+06u as=5.8e+11p ps=4.58e+06u w=2e+06u l=200000u
X5 a_608_118# a_555_21# a_510_118# w_n902_n737# sky130_fd_pr__pfet_01v8 ad=5.8e+11p pd=4.58e+06u as=5.8e+11p ps=4.58e+06u w=2e+06u l=200000u
X6 a_n274_n518# a_n327_n615# a_n372_n518# w_n902_n737# sky130_fd_pr__pfet_01v8 ad=5.8e+11p pd=4.58e+06u as=5.8e+11p ps=4.58e+06u w=2e+06u l=200000u
X7 a_20_n518# a_n33_n87# a_n78_n518# w_n902_n737# sky130_fd_pr__pfet_01v8 ad=5.8e+11p pd=4.58e+06u as=5.8e+11p ps=4.58e+06u w=2e+06u l=200000u
X8 a_216_n518# a_163_n87# a_118_n518# w_n902_n737# sky130_fd_pr__pfet_01v8 ad=5.8e+11p pd=4.58e+06u as=5.8e+11p ps=4.58e+06u w=2e+06u l=200000u
X9 a_n274_118# a_n327_549# a_n372_118# w_n902_n737# sky130_fd_pr__pfet_01v8 ad=5.8e+11p pd=4.58e+06u as=5.8e+11p ps=4.58e+06u w=2e+06u l=200000u
X10 a_706_n518# a_653_n615# a_608_n518# w_n902_n737# sky130_fd_pr__pfet_01v8 ad=5.8e+11p pd=4.58e+06u as=0p ps=0u w=2e+06u l=200000u
X11 a_n568_118# a_n621_21# a_n666_118# w_n902_n737# sky130_fd_pr__pfet_01v8 ad=5.8e+11p pd=4.58e+06u as=5.8e+11p ps=4.58e+06u w=2e+06u l=200000u
X12 a_412_118# a_359_21# a_314_118# w_n902_n737# sky130_fd_pr__pfet_01v8 ad=5.8e+11p pd=4.58e+06u as=0p ps=0u w=2e+06u l=200000u
X13 a_n470_n518# a_n523_n615# a_n568_n518# w_n902_n737# sky130_fd_pr__pfet_01v8 ad=5.8e+11p pd=4.58e+06u as=5.8e+11p ps=4.58e+06u w=2e+06u l=200000u
X14 a_n372_n518# a_n425_n87# a_n470_n518# w_n902_n737# sky130_fd_pr__pfet_01v8 ad=0p pd=0u as=0p ps=0u w=2e+06u l=200000u
X15 a_314_n518# a_261_n615# a_216_n518# w_n902_n737# sky130_fd_pr__pfet_01v8 ad=5.8e+11p pd=4.58e+06u as=0p ps=0u w=2e+06u l=200000u
X16 a_706_118# a_653_549# a_608_118# w_n902_n737# sky130_fd_pr__pfet_01v8 ad=5.8e+11p pd=4.58e+06u as=0p ps=0u w=2e+06u l=200000u
X17 a_n78_118# a_n131_549# a_n176_118# w_n902_n737# sky130_fd_pr__pfet_01v8 ad=0p pd=0u as=5.8e+11p ps=4.58e+06u w=2e+06u l=200000u
X18 a_n372_118# a_n425_21# a_n470_118# w_n902_n737# sky130_fd_pr__pfet_01v8 ad=0p pd=0u as=5.8e+11p ps=4.58e+06u w=2e+06u l=200000u
X19 a_118_n518# a_65_n615# a_20_n518# w_n902_n737# sky130_fd_pr__pfet_01v8 ad=0p pd=0u as=0p ps=0u w=2e+06u l=200000u
X20 a_n666_118# a_n719_549# a_n764_118# w_n902_n737# sky130_fd_pr__pfet_01v8 ad=0p pd=0u as=5.8e+11p ps=4.58e+06u w=2e+06u l=200000u
X21 a_n78_n518# a_n131_n615# a_n176_n518# w_n902_n737# sky130_fd_pr__pfet_01v8 ad=0p pd=0u as=5.8e+11p ps=4.58e+06u w=2e+06u l=200000u
X22 a_n568_n518# a_n621_n87# a_n666_n518# w_n902_n737# sky130_fd_pr__pfet_01v8 ad=0p pd=0u as=0p ps=0u w=2e+06u l=200000u
X23 a_412_n518# a_359_n87# a_314_n518# w_n902_n737# sky130_fd_pr__pfet_01v8 ad=0p pd=0u as=0p ps=0u w=2e+06u l=200000u
X24 a_118_118# a_65_549# a_20_118# w_n902_n737# sky130_fd_pr__pfet_01v8 ad=5.8e+11p pd=4.58e+06u as=0p ps=0u w=2e+06u l=200000u
X25 a_216_118# a_163_21# a_118_118# w_n902_n737# sky130_fd_pr__pfet_01v8 ad=0p pd=0u as=0p ps=0u w=2e+06u l=200000u
X26 a_510_118# a_457_549# a_412_118# w_n902_n737# sky130_fd_pr__pfet_01v8 ad=0p pd=0u as=0p ps=0u w=2e+06u l=200000u
X27 a_n176_118# a_n229_21# a_n274_118# w_n902_n737# sky130_fd_pr__pfet_01v8 ad=0p pd=0u as=0p ps=0u w=2e+06u l=200000u
X28 a_n176_n518# a_n229_n87# a_n274_n518# w_n902_n737# sky130_fd_pr__pfet_01v8 ad=0p pd=0u as=0p ps=0u w=2e+06u l=200000u
X29 a_n470_118# a_n523_549# a_n568_118# w_n902_n737# sky130_fd_pr__pfet_01v8 ad=0p pd=0u as=0p ps=0u w=2e+06u l=200000u
.ends

.subckt rf_transistors m1_2957_359# m1_1943_755# m1_2041_n2774# m1_3839_995# m1_1257_995#
+ m1_1551_n2534# m1_2727_n2534# m1_3643_119# m1_1061_119# m1_1061_n1330# m1_865_995#
+ m1_2237_n1330# m1_571_n2534# m1_1453_n472# m1_1747_359# m1_2761_755# m1_1061_n1916#
+ m1_2237_n1916# m1_3021_n472# m1_767_n712# m1_669_119# m1_1943_n2156# m1_2139_n2534#
+ m1_1649_n2774# m1_2565_359# m1_1551_755# m1_963_n2156# m1_3447_995# m1_1943_n1090#
+ m1_3251_119# m1_669_n2774# m1_963_n1090# m1_2825_n2774# a_622_n800# m1_571_n712#
+ m1_669_n472# m1_1355_359# m1_1159_n712# m1_1845_n1330# m1_1355_n2156# m1_963_359#
+ m1_2041_119# m1_1943_n712# m1_2335_n712# m1_865_n1330# m1_1845_n1916# m1_2369_755#
+ m1_1355_n1090# m1_2531_n2156# m1_3741_755# m1_3055_995# m1_865_n1916# m1_1061_n2774#
+ m1_2237_n2774# m1_2531_n1090# m1_1747_n2534# m1_2859_119# m1_1845_995# m1_1257_n1330#
+ m1_3545_359# m1_1159_755# m1_767_n2534# m1_1845_n472# m1_2237_n472# m1_2923_n2534#
+ m1_767_755# m1_571_359# m1_1257_n1916# a_623_n2862# m1_2433_n1330# m1_1649_119#
+ m1_2663_995# m1_2433_n1916# m1_1159_n2534# m1_2467_119# m1_1453_995# m1_2335_n2534#
+ m1_2041_n472# m1_3349_755# a_623_658# m1_1845_n2774# m1_3153_359# m1_963_n712# m1_1943_359#
+ m1_865_n2774# m1_3839_119# m1_1257_119# m1_3021_n1330# m1_865_119# m1_2727_n712#
+ m1_1551_n2156# m1_2727_n2156# m1_2957_755# m1_2761_359# m1_3021_n1916# m1_3643_995#
+ m1_571_n2156# m1_1257_n2774# a_623_22# m1_1061_995# m1_1551_n1090# m1_2727_n1090#
+ m1_865_n472# m1_1355_n712# m1_2433_n2774# m1_1747_755# m1_571_n1090# m1_1943_n2534#
+ m1_1551_359# m1_2629_n472# m1_2531_n712# m1_3447_119# m1_1453_n1330# m1_2629_n1330#
+ m1_2139_n2156# m1_669_995# m1_963_n2534# w_623_22# m1_1453_n1916# m1_2565_755# m1_2139_n1090#
+ m1_2629_n1916# m1_1257_n472# m1_3251_995# SUB a_623_n908# a_2421_658# m1_2433_n472#
+ m1_1355_n2534# m1_2369_359# m1_3741_359# m1_1355_755# m1_3021_n2774# m1_3055_119#
+ m1_963_755# m1_2041_995# m1_2531_n2534# a_2421_22# m1_2041_n1330# m1_1845_119# m1_1061_n472#
+ m1_1159_359# m1_1747_n2156# m1_767_359# m1_2041_n1916# m1_2859_995# m1_767_n2156#
+ a_622_n2244# m1_1747_n1090# m1_2923_n2156# m1_2663_119# m1_3545_755# m1_1747_n712#
+ m1_1453_n2774# m1_2139_n712# m1_767_n1090# m1_2629_n2774# m1_571_755# m1_2923_n712#
+ m1_2923_n1090# m1_1649_995# m1_1649_n1330# m1_1159_n2156# m1_1453_119# m1_3349_359#
+ m1_669_n1330# m1_1649_n1916# m1_1159_n1090# m1_2825_n1330# m1_2335_n2156# m1_1551_n712#
+ m1_1649_n472# m1_2467_995# m1_669_n1916# m1_3153_755# m1_2825_n472# m1_2335_n1090#
+ m1_2825_n1916#
Xsky130_fd_pr__nfet_01v8_lvt_ZRA4RB_0 a_622_n2244# a_623_n2862# m1_669_n2774# a_623_n2862#
+ a_622_n2244# m1_2433_n2774# m1_2041_n1916# m1_963_n2534# a_623_n2862# a_623_n2862#
+ m1_1257_n1916# m1_1747_n2534# m1_2531_n2156# a_622_n2244# m1_2237_n2774# a_623_n2862#
+ a_622_n2244# a_622_n2244# a_623_n2862# m1_1747_n2156# m1_571_n2534# m1_767_n2156#
+ a_623_n2862# m1_2531_n2534# m1_1649_n1916# a_623_n2862# m1_2139_n2156# m1_1649_n2774#
+ a_622_n2244# a_623_n2862# m1_865_n2774# a_622_n2244# a_623_n2862# a_622_n2244# a_623_n2862#
+ m1_2335_n2534# m1_1159_n2156# m1_2629_n1916# a_622_n2244# a_623_n2862# a_623_n2862#
+ SUB m1_669_n1916# a_622_n2244# m1_2629_n2774# m1_1551_n2534# a_622_n2244# m1_1551_n2156#
+ m1_2237_n1916# m1_2923_n2534# a_623_n2862# a_623_n2862# m1_2923_n2156# a_622_n2244#
+ m1_1061_n1916# m1_2727_n2156# m1_1257_n2774# a_622_n2244# a_622_n2244# a_622_n2244#
+ m1_1943_n2534# m1_2727_n2534# m1_571_n2156# a_623_n2862# a_622_n2244# a_623_n2862#
+ a_623_n2862# m1_1453_n2774# a_622_n2244# m1_3021_n2774# a_622_n2244# m1_1453_n1916#
+ m1_2335_n2156# a_622_n2244# m1_1845_n1916# a_622_n2244# m1_3021_n1916# m1_1159_n2534#
+ m1_2825_n1916# a_623_n2862# a_622_n2244# m1_963_n2156# a_623_n2862# m1_2041_n2774#
+ m1_2825_n2774# a_622_n2244# m1_1355_n2534# m1_767_n2534# m1_1943_n2156# m1_1355_n2156#
+ a_622_n2244# a_623_n2862# a_623_n2862# m1_1061_n2774# m1_1845_n2774# m1_2433_n1916#
+ a_622_n2244# m1_865_n1916# m1_2139_n2534# a_623_n2862# a_622_n2244# a_623_n2862#
+ a_623_n2862# sky130_fd_pr__nfet_01v8_lvt_ZRA4RB
Xsky130_fd_pr__nfet_01v8_lvt_ZRA4RB_1 a_622_n800# a_623_n908# m1_669_n1330# a_623_n908#
+ a_622_n800# m1_2433_n1330# m1_2041_n472# m1_963_n1090# a_623_n908# a_623_n908# m1_1257_n472#
+ m1_1747_n1090# m1_2531_n712# a_622_n800# m1_2237_n1330# a_623_n908# a_622_n800#
+ a_622_n800# a_623_n908# m1_1747_n712# m1_571_n1090# m1_767_n712# a_623_n908# m1_2531_n1090#
+ m1_1649_n472# a_623_n908# m1_2139_n712# m1_1649_n1330# a_622_n800# a_623_n908# m1_865_n1330#
+ a_622_n800# a_623_n908# a_622_n800# a_623_n908# m1_2335_n1090# m1_1159_n712# m1_2629_n472#
+ a_622_n800# a_623_n908# a_623_n908# SUB m1_669_n472# a_622_n800# m1_2629_n1330#
+ m1_1551_n1090# a_622_n800# m1_1551_n712# m1_2237_n472# m1_2923_n1090# a_623_n908#
+ a_623_n908# m1_2923_n712# a_622_n800# m1_1061_n472# m1_2727_n712# m1_1257_n1330#
+ a_622_n800# a_622_n800# a_622_n800# m1_1943_n1090# m1_2727_n1090# m1_571_n712# a_623_n908#
+ a_622_n800# a_623_n908# a_623_n908# m1_1453_n1330# a_622_n800# m1_3021_n1330# a_622_n800#
+ m1_1453_n472# m1_2335_n712# a_622_n800# m1_1845_n472# a_622_n800# m1_3021_n472#
+ m1_1159_n1090# m1_2825_n472# a_623_n908# a_622_n800# m1_963_n712# a_623_n908# m1_2041_n1330#
+ m1_2825_n1330# a_622_n800# m1_1355_n1090# m1_767_n1090# m1_1943_n712# m1_1355_n712#
+ a_622_n800# a_623_n908# a_623_n908# m1_1061_n1330# m1_1845_n1330# m1_2433_n472#
+ a_622_n800# m1_865_n472# m1_2139_n1090# a_623_n908# a_622_n800# a_623_n908# a_623_n908#
+ sky130_fd_pr__nfet_01v8_lvt_ZRA4RB
Xsky130_fd_pr__pfet_01v8_NZHYX4_1 m1_767_359# m1_571_755# a_623_22# a_623_22# a_623_22#
+ a_623_22# m1_1453_119# m1_963_359# a_623_22# m1_1845_995# m1_963_755# m1_1355_755#
+ a_623_658# m1_669_119# a_623_22# a_623_658# a_623_658# m1_1551_359# m1_865_119#
+ w_623_22# m1_1453_995# m1_865_995# a_623_658# a_623_658# m1_1355_359# m1_571_359#
+ a_623_22# a_623_658# m1_1649_119# m1_1943_755# a_623_22# a_623_22# a_623_658# a_623_658#
+ m1_1943_359# m1_1551_755# a_623_658# m1_1747_359# m1_1257_119# m1_2041_995# m1_767_755#
+ a_623_22# m1_1257_995# a_623_658# a_623_658# m1_2041_119# a_623_658# m1_1649_995#
+ m1_1159_755# m1_1159_359# a_623_22# a_623_22# m1_1845_119# a_623_22# m1_669_995#
+ a_623_658# a_623_658# a_623_22# m1_1061_119# a_623_22# a_623_658# m1_1747_755# m1_1061_995#
+ sky130_fd_pr__pfet_01v8_NZHYX4
Xsky130_fd_pr__pfet_01v8_NZHYX4_2 m1_2565_359# m1_2369_755# a_2421_22# a_2421_22#
+ a_2421_22# a_2421_22# m1_3251_119# m1_2761_359# a_2421_22# m1_3643_995# m1_2761_755#
+ m1_3153_755# a_2421_658# m1_2467_119# a_2421_22# a_2421_658# a_2421_658# m1_3349_359#
+ m1_2663_119# w_623_22# m1_3251_995# m1_2663_995# a_2421_658# a_2421_658# m1_3153_359#
+ m1_2369_359# a_2421_22# a_2421_658# m1_3447_119# m1_3741_755# a_2421_22# a_2421_22#
+ a_2421_658# a_2421_658# m1_3741_359# m1_3349_755# a_2421_658# m1_3545_359# m1_3055_119#
+ m1_3839_995# m1_2565_755# a_2421_22# m1_3055_995# a_2421_658# a_2421_658# m1_3839_119#
+ a_2421_658# m1_3447_995# m1_2957_755# m1_2957_359# a_2421_22# a_2421_22# m1_3643_119#
+ a_2421_22# m1_2467_995# a_2421_658# a_2421_658# a_2421_22# m1_2859_119# a_2421_22#
+ a_2421_658# m1_3545_755# m1_2859_995# sky130_fd_pr__pfet_01v8_NZHYX4
.ends

.subckt sky130_fd_pr__cap_mim_m3_2_ZWVPUJ c2_n2751_n1800#
X0 c2_n2751_n1800# m4_n2851_n1900# sky130_fd_pr__cap_mim_m3_2 l=1.8e+07u w=2.5e+07u
.ends

.subckt sky130_fd_pr__nfet_01v8_RRWALQ a_n1041_109# a_n1041_727# a_1119_1149# a_n1185_21#
+ a_n1229_109# a_n1229_727# a_n753_n509# a_879_n1127# a_n81_727# a_447_639# a_n369_n509#
+ a_687_n1127# a_975_n1127# a_n81_109# a_n129_531# a_351_n87# a_399_n1127# a_495_n1127#
+ a_783_n1127# a_n33_n87# a_399_727# a_303_n509# a_591_n1127# a_399_109# a_n513_n597#
+ a_n129_n597# a_n321_639# a_879_109# a_879_727# a_63_n597# a_n273_109# a_n273_727#
+ a_n1089_n597# a_735_21# a_447_531# a_n225_n87# a_n465_n509# a_n753_727# a_n753_109#